% --- Solver ---
SOLVER= RANS
KIND_TURB_MODEL= SA
MATH_PROBLEM= DIRECT
RESTART_SOL= YES
SOLUTION_FILENAME= restart_flow
RESTART_FILENAME= restart_flow

% --- Flow ---
MACH_NUMBER= 0.15
AOA= 1
REYNOLDS_NUMBER= 1000000
REF_LENGTH= 1.0
REF_AREA= 1.0

% --- Boundaries ---
MARKER_HEATFLUX= ( airfoil, 0.0 )
MARKER_FAR= ( farfield )
MARKER_MONITORING= ( airfoil )

% --- Numerics ---
CONV_NUM_METHOD_FLOW= ROE
MUSCL_FLOW= YES
SLOPE_LIMITER_FLOW= VENKATAKRISHNAN
VENKAT_LIMITER_COEFF= 0.1
ROE_KAPPA= 0.5
TIME_DISCRE_FLOW= EULER_IMPLICIT
CONV_NUM_METHOD_TURB= SCALAR_UPWIND
TIME_DISCRE_TURB= EULER_IMPLICIT
LOW_MACH_PREC= YES
LOW_MACH_CORR= YES

% --- Linear solver ---
LINEAR_SOLVER= FGMRES
LINEAR_SOLVER_PREC= ILU
LINEAR_SOLVER_ILU_FILL_IN= 0
LINEAR_SOLVER_ITER= 15
LINEAR_SOLVER_ERROR= 1E-6

% --- Convergence ---
CFL_NUMBER= 20.0
CFL_ADAPT= YES
CFL_ADAPT_PARAM= ( 0.5, 1.1, 1.0, 50.0 )
CFL_REDUCTION_TURB= 0.5
ITER= 2000
CONV_FIELD= RMS_DENSITY
CONV_RESIDUAL_MINVAL= -6.0
CONV_STARTITER= 10

% --- Output ---
MESH_FILENAME= airfoil.su2
MESH_FORMAT= SU2
TABULAR_FORMAT= CSV
CONV_FILENAME= history
HISTORY_OUTPUT= (ITER, RMS_RES, AERO_COEFF)
